XFLR5 v6.09.06

 Calculated polar for: NACA 3318 Airfoil M=3.0% P=30.0% T=18.0%

 1 1 Reynolds number fixed          Mach number fixed         

 xtrf =   0.100 (top)        0.100 (bottom)
 Mach =   0.000     Re =    11.000 e 6     Ncrit =   9.000

  alpha     CL        CD       CDp       Cm    Top Xtr Bot Xtr   Cpmin    Chinge    XCp    
 ------- -------- --------- --------- -------- ------- ------- -------- --------- ---------
 -10.000  -0.7702   0.00945   0.00343  -0.0667  0.1000  0.0329  -4.0590   0.0000   0.1470
  -9.500  -0.7192   0.00925   0.00323  -0.0655  0.1000  0.0380  -3.7853   0.0000   0.1428
  -9.000  -0.6689   0.00900   0.00299  -0.0641  0.1000  0.0423  -3.5194   0.0000   0.1382
  -8.500  -0.6182   0.00878   0.00278  -0.0628  0.1000  0.0458  -3.2600   0.0000   0.1326
  -8.000  -0.5655   0.00865   0.00264  -0.0618  0.1000  0.0467  -3.0025   0.0000   0.1249
  -7.500  -0.5123   0.00855   0.00252  -0.0609  0.1000  0.0471  -2.7642   0.0000   0.1152
  -7.000  -0.4591   0.00844   0.00240  -0.0600  0.1000  0.0508  -2.5578   0.0000   0.1031
  -6.500  -0.4068   0.00830   0.00227  -0.0590  0.1000  0.0578  -2.3585   0.0000   0.0886
  -6.000  -0.3548   0.00813   0.00213  -0.0578  0.1000  0.0636  -2.1644   0.0000   0.0699
  -5.500  -0.3008   0.00807   0.00205  -0.0571  0.1000  0.0651  -1.9724   0.0000   0.0423
  -5.000  -0.2474   0.00799   0.00197  -0.0562  0.1000  0.0743  -1.7873   0.0000   0.0034
  -4.500  -0.1949   0.00786   0.00188  -0.0552  0.1000  0.0824  -1.6093   0.0000  -0.0548
  -4.000  -0.1407   0.00783   0.00184  -0.0545  0.1000  0.0842  -1.4430   0.0000  -0.1634
  -3.500  -0.0872   0.00776   0.00179  -0.0537  0.1000  0.0972  -1.3002   0.0000  -0.4011
  -3.000  -0.0330   0.00774   0.00177  -0.0530  0.1000  0.1000  -1.1607   0.0000  -1.4344
  -2.500   0.0218   0.00776   0.00176  -0.0524  0.1000  0.1000  -1.0243   0.0000   2.7499
  -2.000   0.0764   0.00778   0.00177  -0.0518  0.1000  0.1000  -0.8962   0.0000   0.9470
  -1.500   0.1310   0.00780   0.00178  -0.0512  0.1000  0.1000  -0.7874   0.0000   0.6480
  -1.000   0.1855   0.00784   0.00180  -0.0507  0.1000  0.1000  -0.8154   0.0000   0.5249
  -0.500   0.2399   0.00787   0.00182  -0.0501  0.1000  0.1000  -0.8630   0.0000   0.4577
   0.000   0.2941   0.00792   0.00186  -0.0494  0.1000  0.1000  -0.9158   0.0000   0.4153
   0.500   0.3482   0.00797   0.00190  -0.0488  0.1000  0.1000  -0.9698   0.0000   0.3860
   1.000   0.4020   0.00803   0.00195  -0.0482  0.1000  0.1000  -1.0240   0.0000   0.3646
   1.500   0.4557   0.00809   0.00201  -0.0475  0.1000  0.1000  -1.0785   0.0000   0.3481
   2.000   0.5091   0.00816   0.00208  -0.0468  0.1000  0.1000  -1.1389   0.0000   0.3350
   2.500   0.5622   0.00823   0.00216  -0.0461  0.1000  0.1000  -1.2006   0.0000   0.3243
   3.000   0.6149   0.00831   0.00224  -0.0453  0.1000  0.1000  -1.2627   0.0000   0.3154
   3.500   0.6673   0.00840   0.00233  -0.0445  0.1000  0.1000  -1.3281   0.0000   0.3077
   4.000   0.7193   0.00849   0.00243  -0.0436  0.1000  0.1000  -1.3985   0.0000   0.3010
   4.500   0.7707   0.00859   0.00254  -0.0426  0.1000  0.1000  -1.4768   0.0000   0.2951
   5.000   0.8216   0.00870   0.00266  -0.0416  0.1000  0.1000  -1.5631   0.0000   0.2897
   5.500   0.8694   0.00879   0.00277  -0.0399  0.1000  0.1000  -1.6531   0.0000   0.2844
   6.000   0.9148   0.00887   0.00287  -0.0377  0.1000  0.1000  -1.7420   0.0000   0.2790
   6.500   0.9613   0.00899   0.00301  -0.0359  0.1000  0.1000  -1.8454   0.0000   0.2744
   7.000   1.0090   0.00916   0.00319  -0.0343  0.1000  0.1000  -1.9607   0.0000   0.2704
   7.500   1.0565   0.00934   0.00340  -0.0328  0.1000  0.1000  -2.0857   0.0000   0.2668
   8.000   1.1038   0.00954   0.00362  -0.0313  0.1000  0.1000  -2.2278   0.0000   0.2633
   8.500   1.1505   0.00974   0.00384  -0.0297  0.1000  0.1000  -2.3772   0.0000   0.2601
   9.000   1.1965   0.00995   0.00408  -0.0281  0.1000  0.1000  -2.5361   0.0000   0.2570
   9.500   1.2423   0.01018   0.00434  -0.0265  0.1000  0.1000  -2.7169   0.0000   0.2540
  10.000   1.2817   0.01060   0.00474  -0.0238  0.0898  0.1000  -2.8893   0.0000   0.2505
  10.500   1.3235   0.01095   0.00511  -0.0216  0.0850  0.1000  -3.0695   0.0000   0.2474
  11.000   1.3559   0.01162   0.00572  -0.0180  0.0771  0.1000  -3.2351   0.0000   0.2435
  11.500   1.3897   0.01223   0.00631  -0.0147  0.0667  0.1000  -3.4337   0.0000   0.2399
  12.000   1.4264   0.01278   0.00686  -0.0121  0.0626  0.1000  -3.6474   0.0000   0.2369
  12.500   1.4496   0.01384   0.00786  -0.0076  0.0535  0.1000  -3.8319   0.0000   0.2327
  13.000   1.4813   0.01461   0.00863  -0.0045  0.0467  0.1000  -4.0410   0.0000   0.2296
  13.500   1.5149   0.01533   0.00939  -0.0020  0.0453  0.1000  -4.2584   0.0000   0.2268
  14.000   1.5433   0.01632   0.01040   0.0011  0.0440  0.1000  -4.4667   0.0000   0.2238
  14.500   1.5657   0.01769   0.01175   0.0047  0.0400  0.1000  -4.6615   0.0000   0.2205
  15.000   1.5862   0.01921   0.01329   0.0081  0.0359  0.1000  -4.8533   0.0000   0.2173
  15.500   1.6073   0.02076   0.01487   0.0111  0.0320  0.1000  -5.0491   0.0000   0.2144
  16.000   1.6346   0.02212   0.01626   0.0133  0.0301  0.1000  -5.2729   0.0000   0.2121
  16.500   1.6548   0.02402   0.01823   0.0157  0.0299  0.1000  -5.5076   0.0000   0.2095
  17.000   1.6729   0.02622   0.02049   0.0180  0.0296  0.1000  -5.7378   0.0000   0.2071
  17.500   1.6931   0.02838   0.02268   0.0198  0.0287  0.1000  -5.9785   0.0000   0.2049
  18.000   1.6974   0.03186   0.02620   0.0221  0.0268  0.1000  -6.1639   0.0000   0.2023
  18.500   1.6977   0.03591   0.03029   0.0240  0.0248  0.1000  -6.3343   0.0000   0.1998
  19.000   1.6960   0.04020   0.03465   0.0255  0.0230  0.1000  -6.4964   0.0000   0.1976
  19.500   1.6944   0.04492   0.03945   0.0263  0.0212  0.1000  -6.6581   0.0000   0.1957
  20.000   1.7032   0.04874   0.04333   0.0267  0.0191  0.1000  -6.8611   0.0000   0.1941
  20.500   1.6972   0.05438   0.04906   0.0267  0.0178  0.1000  -7.0032   0.0000   0.1926
  21.000   1.6866   0.06067   0.05547   0.0262  0.0178  0.1000  -7.1253   0.0000   0.1913
  21.500   1.6913   0.06517   0.06005   0.0257  0.0177  0.1000  -7.3113   0.0000   0.1903
  22.000   1.6765   0.07210   0.06710   0.0244  0.0176  0.1000  -7.4097   0.0000   0.1894
  22.500   1.6524   0.07986   0.07500   0.0225  0.0176  0.1000  -7.4623   0.0000   0.1887
  23.000   1.6527   0.08504   0.08026   0.0211  0.0175  0.1000  -7.6240   0.0000   0.1880
  23.500   1.6283   0.09363   0.08898   0.0183  0.0174  0.1000  -7.6652   0.0000   0.1879
  24.000   1.5920   0.10397   0.09948   0.0144  0.0173  0.1000  -7.6403   0.0000   0.1884
  24.500   1.5964   0.10880   0.10438   0.0123  0.0172  0.1000  -7.8132   0.0000   0.1882
  25.000   1.5508   0.12048   0.11622   0.0070  0.0171  0.1000  -7.7232   0.0000   0.1897
  25.500   1.5590   0.12465   0.12043   0.0046  0.0166  0.1000  -7.9110   0.0000   0.1896
  26.000   1.5085   0.13703   0.13298  -0.0021  0.0163  0.1000  -7.7704   0.0000   0.1921
  26.500   1.5139   0.14104   0.13700  -0.0050  0.0150  0.1000  -7.9354   0.0000   0.1924


