xflr5 v6.38

 Calculated polar for: NACA 3318fl+10

 1 1 Reynolds number fixed          Mach number fixed         

 xtrf =   1.000 (top)        1.000 (bottom)
 Mach =   0.000     Re =    11.000 e 6     Ncrit =   9.000

  alpha     CL        CD       CDp       Cm    Top Xtr Bot Xtr   Cpmin    Chinge    XCp    
 ------- -------- --------- --------- -------- ------- ------- -------- --------- ---------
 -10.000  -0.1408   0.00562   0.00193  -0.1730  0.8325  0.0490  -2.5176   0.0054  -1.0558
  -9.750  -0.1125   0.00553   0.00185  -0.1731  0.8314  0.0508  -2.4153   0.0054  -1.3812
  -9.500  -0.1054   0.00576   0.00185  -0.1685  0.7716  0.0533  -2.3525   0.0050  -1.4443
  -9.250  -0.0911   0.00589   0.00186  -0.1656  0.7261  0.0563  -2.2773   0.0046  -1.6743
  -9.000  -0.0757   0.00595   0.00184  -0.1629  0.6953  0.0594  -2.2006   0.0044  -2.0260
  -8.750  -0.0569   0.00593   0.00178  -0.1610  0.6784  0.0627  -2.1193   0.0042  -2.7370
  -8.500  -0.0391   0.00593   0.00173  -0.1588  0.6547  0.0653  -2.0405   0.0039  -4.0278
  -8.250  -0.0240   0.00597   0.00171  -0.1560  0.6351  0.0661  -1.9668   0.0036  -6.5879
  -8.000  -0.0088   0.00597   0.00166  -0.1531  0.6149  0.0664  -1.8938   0.0033  -18.1084
  -7.750  -0.0031   0.00601   0.00162  -0.1483  0.5941  0.0666  -1.8375   0.0028  -50.1372
  -7.500   0.0146   0.00601   0.00158  -0.1460  0.5763  0.0702  -1.7619   0.0026  10.7281
  -7.250   0.0288   0.00605   0.00157  -0.1430  0.5600  0.0742  -1.6931   0.0023   5.4611
  -7.000   0.0474   0.00605   0.00156  -0.1410  0.5401  0.0785  -1.6180   0.0021   3.3660
  -6.750   0.0698   0.00600   0.00152  -0.1398  0.5353  0.0829  -1.5379   0.0020   2.3436
  -6.500   0.0885   0.00606   0.00154  -0.1377  0.5218  0.0851  -1.4646   0.0018   1.8765
  -6.250   0.1100   0.00613   0.00157  -0.1363  0.5027  0.0859  -1.3886   0.0017   1.5420
  -6.000   0.1349   0.00615   0.00157  -0.1355  0.4971  0.0868  -1.3207   0.0016   1.2961
  -5.750   0.1552   0.00624   0.00162  -0.1339  0.4857  0.0928  -1.2593   0.0015   1.1466
  -5.500   0.1757   0.00633   0.00167  -0.1322  0.4646  0.0986  -1.1988   0.0014   1.0310
  -5.250   0.2003   0.00632   0.00166  -0.1315  0.4566  0.1046  -1.1341   0.0013   0.9299
  -5.000   0.2211   0.00642   0.00171  -0.1299  0.4410  0.1077  -1.0746   0.0012   0.8576
  -4.750   0.2442   0.00650   0.00176  -0.1288  0.4221  0.1120  -1.0132   0.0011   0.7946
  -4.500   0.2689   0.00651   0.00177  -0.1281  0.4185  0.1201  -0.9507   0.0011   0.7406
  -4.250   0.2926   0.00653   0.00180  -0.1271  0.4132  0.1274  -0.8904   0.0010   0.6966
  -4.000   0.3154   0.00661   0.00185  -0.1260  0.4028  0.1311  -0.8329   0.0009   0.6598
  -3.750   0.3399   0.00668   0.00189  -0.1252  0.3912  0.1324  -0.8293   0.0009   0.6271
  -3.500   0.3656   0.00671   0.00192  -0.1246  0.3810  0.1403  -0.8530   0.0009   0.5982
  -3.250   0.3912   0.00672   0.00194  -0.1241  0.3783  0.1497  -0.8768   0.0008   0.5732
  -3.000   0.4153   0.00677   0.00199  -0.1232  0.3708  0.1565  -0.8997   0.0008   0.5517
  -2.750   0.4394   0.00686   0.00204  -0.1223  0.3615  0.1644  -0.9226   0.0007   0.5325
  -2.500   0.4645   0.00688   0.00208  -0.1217  0.3539  0.1767  -0.9462   0.0007   0.5152
  -2.250   0.4890   0.00692   0.00213  -0.1209  0.3469  0.1841  -0.9695   0.0006   0.4997
  -2.000   0.5141   0.00696   0.00218  -0.1202  0.3428  0.1862  -0.9934   0.0006   0.4855
  -1.750   0.5398   0.00699   0.00223  -0.1197  0.3421  0.1978  -1.0177   0.0006   0.4727
  -1.500   0.5651   0.00700   0.00227  -0.1191  0.3408  0.2102  -1.0443   0.0006   0.4611
  -1.250   0.5903   0.00706   0.00233  -0.1184  0.3371  0.2181  -1.0714   0.0005   0.4504
  -1.000   0.6145   0.00711   0.00240  -0.1176  0.3314  0.2369  -1.0978   0.0005   0.4406
  -0.750   0.6394   0.00718   0.00246  -0.1169  0.3266  0.2452  -1.1248   0.0005   0.4316
  -0.500   0.6648   0.00725   0.00252  -0.1164  0.3213  0.2550  -1.1523   0.0004   0.4232
   0.000   0.7150   0.00730   0.00265  -0.1151  0.3076  0.2957  -1.2070   0.0004   0.4083
   0.250   0.7398   0.00728   0.00271  -0.1144  0.3054  0.3304  -1.2352   0.0003   0.4015
   0.500   0.7647   0.00727   0.00277  -0.1138  0.3051  0.3647  -1.2661   0.0003   0.3952
   0.750   0.7899   0.00727   0.00284  -0.1131  0.3048  0.3864  -1.2974   0.0002   0.3892
   1.250   0.8372   0.00736   0.00303  -0.1113  0.3035  0.4375  -1.3582   0.0002   0.3782
   1.500   0.8609   0.00740   0.00313  -0.1104  0.3021  0.4596  -1.3888   0.0001   0.3731
   1.750   0.8856   0.00750   0.00322  -0.1098  0.2987  0.4636  -1.4218   0.0001   0.3684
   2.000   0.9084   0.00765   0.00334  -0.1087  0.2901  0.4827  -1.4556   0.0001   0.3638
   2.250   0.9310   0.00778   0.00347  -0.1077  0.2779  0.5011  -1.4895   0.0000   0.3593
   2.500   0.9558   0.00788   0.00356  -0.1070  0.2679  0.5163  -1.5253   0.0000   0.3553
   2.750   0.9808   0.00793   0.00365  -0.1064  0.2671  0.5312  -1.5617  -0.0000   0.3515
   3.000   1.0059   0.00802   0.00375  -0.1059  0.2653  0.5394  -1.6022  -0.0000   0.3478
   3.250   1.0280   0.00824   0.00391  -0.1048  0.2550  0.5510  -1.6408  -0.0000   0.3441
   3.500   1.0497   0.00842   0.00408  -0.1036  0.2412  0.5721  -1.6791  -0.0001   0.3405
   3.750   1.0742   0.00853   0.00419  -0.1029  0.2323  0.5793  -1.7214  -0.0001   0.3373
   4.000   1.0991   0.00863   0.00430  -0.1023  0.2310  0.5941  -1.7690  -0.0001   0.3342
   4.250   1.1225   0.00874   0.00443  -0.1015  0.2278  0.6134  -1.8153  -0.0001   0.3311
   4.500   1.1419   0.00907   0.00467  -0.1000  0.2126  0.6181  -1.8577  -0.0001   0.3279
   4.750   1.1624   0.00930   0.00489  -0.0986  0.1997  0.6307  -1.9079  -0.0002   0.3248
   5.000   1.1839   0.00945   0.00506  -0.0974  0.1967  0.6491  -1.9597  -0.0002   0.3219
   5.250   1.2062   0.00963   0.00524  -0.0964  0.1933  0.6564  -2.0136  -0.0002   0.3192
   5.500   1.2235   0.01001   0.00554  -0.0946  0.1779  0.6771  -2.0684  -0.0002   0.3162
   5.750   1.2456   0.01018   0.00573  -0.0935  0.1682  0.6893  -2.1301  -0.0002   0.3136
   6.000   1.2688   0.01036   0.00588  -0.0927  0.1635  0.6921  -2.1935  -0.0002   0.3112
   6.250   1.2900   0.01062   0.00610  -0.0916  0.1577  0.6934  -2.2611  -0.0002   0.3087
   6.500   1.3097   0.01095   0.00637  -0.0903  0.1484  0.7034  -2.3306  -0.0002   0.3062
   6.750   1.3310   0.01120   0.00661  -0.0891  0.1358  0.7144  -2.4033  -0.0002   0.3039
   7.000   1.3525   0.01144   0.00683  -0.0881  0.1320  0.7229  -2.4772  -0.0002   0.3017
   7.250   1.3689   0.01192   0.00722  -0.0862  0.1191  0.7265  -2.5433  -0.0002   0.2991
   7.500   1.3900   0.01220   0.00747  -0.0852  0.1090  0.7281  -2.6254  -0.0002   0.2970
   7.750   1.4097   0.01248   0.00775  -0.0838  0.1072  0.7289  -2.7112  -0.0002   0.2948
   8.000   1.4271   0.01285   0.00810  -0.0822  0.1049  0.7345  -2.7936  -0.0001   0.2925
   8.250   1.4436   0.01331   0.00851  -0.0804  0.0982  0.7425  -2.8747  -0.0001   0.2902
   8.500   1.4623   0.01368   0.00886  -0.0790  0.0911  0.7499  -2.9608  -0.0001   0.2881
   8.750   1.4831   0.01396   0.00915  -0.0779  0.0847  0.7558  -3.0514  -0.0001   0.2862
   9.000   1.5045   0.01422   0.00940  -0.0770  0.0831  0.7591  -3.1448  -0.0000   0.2844
   9.250   1.5250   0.01452   0.00969  -0.0760  0.0813  0.7607  -3.2373   0.0000   0.2826
   9.500   1.5423   0.01497   0.01009  -0.0744  0.0766  0.7616  -3.3240   0.0000   0.2806
   9.750   1.5595   0.01540   0.01047  -0.0729  0.0713  0.7623  -3.4233   0.0001   0.2786
  10.000   1.5782   0.01574   0.01080  -0.0716  0.0658  0.7628  -3.5312   0.0001   0.2768
  10.250   1.5976   0.01607   0.01112  -0.0704  0.0620  0.7632  -3.6420   0.0001   0.2751
  10.500   1.6100   0.01664   0.01169  -0.0682  0.0609  0.7645  -3.7375   0.0002   0.2729
  10.750   1.6219   0.01734   0.01234  -0.0660  0.0565  0.7687  -3.8319   0.0002   0.2707
  11.000   1.6369   0.01793   0.01290  -0.0643  0.0522  0.7732  -3.9347   0.0003   0.2689
  11.250   1.6548   0.01839   0.01335  -0.0630  0.0486  0.7772  -4.0459   0.0003   0.2672
  11.500   1.6735   0.01881   0.01377  -0.0619  0.0453  0.7803  -4.1599   0.0004   0.2656
  11.750   1.6926   0.01921   0.01417  -0.0608  0.0438  0.7827  -4.2762   0.0004   0.2641
  12.000   1.7114   0.01963   0.01459  -0.0598  0.0435  0.7847  -4.3933   0.0005   0.2626
  12.250   1.7296   0.02009   0.01505  -0.0586  0.0430  0.7865  -4.5098   0.0005   0.2611
  12.500   1.7458   0.02065   0.01560  -0.0573  0.0419  0.7881  -4.6224   0.0006   0.2595
  12.750   1.7586   0.02137   0.01630  -0.0555  0.0399  0.7894  -4.7269   0.0006   0.2577
  13.000   1.7647   0.02240   0.01733  -0.0528  0.0380  0.7904  -4.8140   0.0007   0.2556
  13.250   1.7754   0.02325   0.01817  -0.0509  0.0359  0.7913  -4.9139   0.0008   0.2538
  13.500   1.7874   0.02405   0.01896  -0.0491  0.0339  0.7921  -5.0181   0.0008   0.2521
  13.750   1.7970   0.02497   0.01990  -0.0472  0.0320  0.7928  -5.1166   0.0009   0.2503
  14.000   1.8094   0.02577   0.02071  -0.0456  0.0301  0.7933  -5.2234   0.0009   0.2487
  14.250   1.8195   0.02669   0.02164  -0.0438  0.0287  0.7938  -5.3245   0.0010   0.2470
  14.500   1.8292   0.02762   0.02259  -0.0421  0.0286  0.7941  -5.4384   0.0011   0.2454
  14.750   1.8373   0.02874   0.02374  -0.0403  0.0285  0.7945  -5.5522   0.0011   0.2438
  15.000   1.8500   0.02961   0.02463  -0.0391  0.0284  0.7947  -5.6821   0.0012   0.2424
  15.250   1.8627   0.03051   0.02554  -0.0379  0.0282  0.7949  -5.8133   0.0012   0.2410
  15.500   1.8703   0.03180   0.02686  -0.0363  0.0280  0.7951  -5.9286   0.0013   0.2395
  15.750   1.8773   0.03323   0.02831  -0.0349  0.0277  0.7952  -6.0418   0.0014   0.2380
  16.000   1.8863   0.03451   0.02960  -0.0336  0.0271  0.7954  -6.1627   0.0014   0.2367
  16.250   1.8860   0.03660   0.03172  -0.0318  0.0263  0.7955  -6.2514   0.0015   0.2351
  16.500   1.8892   0.03843   0.03356  -0.0304  0.0252  0.7956  -6.3524   0.0016   0.2337
  16.750   1.8936   0.04019   0.03533  -0.0292  0.0241  0.7957  -6.4578   0.0016   0.2324
  17.000   1.8887   0.04290   0.03807  -0.0277  0.0233  0.7957  -6.5293   0.0017   0.2309
  17.250   1.8931   0.04473   0.03991  -0.0267  0.0223  0.7958  -6.6351   0.0018   0.2297
  17.500   1.8875   0.04764   0.04287  -0.0256  0.0215  0.7958  -6.7033   0.0018   0.2285
  17.750   1.8919   0.04954   0.04479  -0.0248  0.0205  0.7959  -6.8092   0.0019   0.2274
  18.000   1.8961   0.05144   0.04672  -0.0241  0.0195  0.7959  -6.9151   0.0020   0.2263
  18.250   1.8881   0.05475   0.05008  -0.0234  0.0188  0.7959  -6.9727   0.0020   0.2253
  18.500   1.8919   0.05674   0.05210  -0.0229  0.0177  0.7960  -7.0768   0.0021   0.2243
  18.750   1.8809   0.06045   0.05588  -0.0226  0.0168  0.7960  -7.1215   0.0021   0.2235
  19.000   1.8836   0.06255   0.05801  -0.0222  0.0166  0.7960  -7.2217   0.0022   0.2226
  19.250   1.8858   0.06458   0.06008  -0.0219  0.0166  0.7960  -7.3197   0.0023   0.2217


